/*--------------------------------*- C++ -*----------------------------------*\
| =========                 |                                                 |
| \\      /  F ield         | OpenFOAM: The Open Source CFD Toolbox           |
|  \\    /   O peration     | Version:  5                                     |
|   \\  /    A nd           | Web:      www.OpenFOAM.org                      |
|    \\/     M anipulation  |                                                 |
\*---------------------------------------------------------------------------*/
FoamFile
{
    version     2.0;
    format      ascii;
    class       dictionary;
    object      dynamicMeshDict;
}
// * * * * * * * * * * * * * * * * * * * * * * * * * * * * * * * * * * * * * //

dynamicFvMesh      dynamicMotionSolverFvMesh;

motionSolverLibs ("libsixDoFRigidBodyMotion.so");

solver            sixDoFRigidBodyMotion;

sixDoFRigidBodyMotionCoeffs
{
patches         (wing);
innerDistance   0.2;//0.35;
outerDistance   0.6;//1;


//rhoSolid        10;
mass            0.003926991;
centreOfMass    (0 0 0);
momentOfInertia (0.0001 0.0001 7000000000);//2.057121362
orientation
(
    1 0 0
    0 1 0
    0 0 1
    /*0.9953705935 0.09611129781 0
    -0.09611129781 0.9953705935 0
    0 0 1*/
);
velocity 	   (0 0 0);
angularMomentum (0 0 0);
g               (0 0 0);//-9.81
rho             rhoInf;
rhoInf          1;//1.924;
report          on;
reportToFile    on;

solver
{
    type symplectic;
}

constraints
{
    /*xyLine
    {
        sixDoFRigidBodyMotionConstraint line;
        //centreOfRotation    (0.25 0.007 0.125);
        direction           (1 1 0);
    }
	
    yLine
    {
        sixDoFRigidBodyMotionConstraint line;
        //centreOfRotation    (0.25 0.007 0.125);
        direction           (0 1 0);
    }
	
    xLine
    {
        sixDoFRigidBodyMotionConstraint line;
        //centreOfRotation    (0.25 0.007 0.125);
        direction           (1 0 0);
    }

    zAxis
    {
        sixDoFRigidBodyMotionConstraint axis;
        axis                (0 0 1);
    }*/
}

restraints
{
    yverticalSpring
    {
        sixDoFRigidBodyMotionRestraint linearSpring;
        anchor          (0 0 0);
        refAttachmentPt (0 0 0);
        stiffness       0.007045018;//0.094;//1000;//1768.63;//80;
        damping         0;//26.386;
        restLength      0;
    }
	
    /*axialSpring
    {
        sixDoFRigidBodyMotionRestraint linearAxialAngularSpring;

        axis            (0 0 1);
        stiffness       700000000;
        damping         8000000000;
        referenceOrientation $orientation;
    }*/
}
}


// ************************************************************************* //
